/batch
/config,noeldb,1     ! force off writing results to database
*get,_wallstrt,active,,time,wall
! ANSYS input file written by Workbench version 2023 R2
! File used for geometry attach: C:\Users\30697\Desktop\DA_ANSYS\project1_files\dp0\SYS\DM\SYS.agdb
/title,project1--Static Structural (C5)
! ****** Begin Custom Load Command Snippet ******
/COM, ACT Extensions:
/COM,     LSDYNA, 2023.2
/COM,     5f463412-bd3e-484b-87e7-cbc0a665e474, wbex
/COM,/COM,     ANSYSMotion, 2023.2
/COM,     20180725-3f81-49eb-9f31-41364844c769, wbex
/COM,
! ****** End   Custom Load Command Snippet ******
*DIM,_wb_ProjectScratch_dir,string,248
_wb_ProjectScratch_dir(1) = 'C:\Users\30697\Desktop\DA_ANSYS\_ProjectScratch\Scr4502\'
*DIM,_wb_SolverFiles_dir,string,248
_wb_SolverFiles_dir(1) = 'C:\Users\30697\Desktop\DA_ANSYS\project1_files\dp0\SYS\MECH\'
*DIM,_wb_userfiles_dir,string,248
_wb_userfiles_dir(1) = 'C:\Users\30697\Desktop\DA_ANSYS\project1_files\user_files\'
/com,--- Data in consistent MKS units. See Solving Units in the help system for more information.
/units,MKS
/nopr
/wb,file,start              !  signify a WB generated input file
/prep7
! Turn off shape checking because checks already performed inside WB mesher.
! See help system for more information.
SHPP,OFF,,NOWARN
/nolist
etcon,set             ! allow ANSYS to choose best KEYOP's for 180x elements, resets any applicable keyopt to MAPDL defaults
/com,*********** Nodes for the whole assembly ***********
nblock,3,,11221
(1i9,3e20.9e3)
        1     2.000000000E-15     1.000000000E+01     0.000000000E+00
        2     0.000000000E+00     0.000000000E+00     0.000000000E+00
        3     1.758593271E-15     9.900000000E+00     0.000000000E+00
        4     1.740829703E-15     9.800000000E+00     0.000000000E+00
        5     1.723066134E-15     9.700000000E+00     0.000000000E+00
        6     1.705302566E-15     9.600000000E+00     0.000000000E+00
        7     1.687538997E-15     9.500000000E+00     0.000000000E+00
        8     1.669775429E-15     9.400000000E+00     0.000000000E+00
        9     1.652011861E-15     9.300000000E+00     0.000000000E+00
       10     1.634248292E-15     9.200000000E+00     0.000000000E+00
       11     1.616484724E-15     9.100000000E+00     0.000000000E+00
       12     1.598721155E-15     9.000000000E+00     0.000000000E+00
       13     1.580957587E-15     8.900000000E+00     0.000000000E+00
       14     1.563194019E-15     8.800000000E+00     0.000000000E+00
       15     1.545430450E-15     8.700000000E+00     0.000000000E+00
       16     1.527666882E-15     8.600000000E+00     0.000000000E+00
       17     1.509903313E-15     8.500000000E+00     0.000000000E+00
       18     1.492139745E-15     8.400000000E+00     0.000000000E+00
       19     1.474376177E-15     8.300000000E+00     0.000000000E+00
       20     1.456612608E-15     8.200000000E+00     0.000000000E+00
! ... 10182 like lines cut
/wb,elem,start            !  set before creation of elements
/com,*********** Elements for Body 1 "Surface Body" ***********
et,1,181
keyo,1,1,0       ! bending and membrane stiffness
keyo,1,3,2
eblock,19,solid,,10000
(19i9)
        1        1        1        1        0        0        0        0        4        0        1      402      405      401    10201
        1        1        1        1        0        0        0        0        4        0        2    10201      403     7595      402
        1        1        1        1        0        0        0        0        4        0        3      401     7599      404    10201
        1        1        1        1        0        0        0        0        4        0        4      404      406      403    10201
        1        1        1        1        0        0        0        0        4        0        5      401     8425      407     7599
        1        1        1        1        0        0        0        0        4        0        6      405      409     8425      401
        1        1        1        1        0        0        0        0        4        0        7      402      411      408      405
        1        1        1        1        0        0        0        0        4        0        8     7595      412      411      402
        1        1        1        1        0        0        0        0        4        0        9      403     8417      410     7595
        1        1        1        1        0        0        0        0        4        0       10      406      414     8417      403
        1        1        1        1        0        0        0        0        4        0       11     7599      416      415      404
        1        1        1        1        0        0        0        0        4        0       12      415      413      406      404
        1        1        1        1        0        0        0        0        4        0       13      407      417      416     7599
        1        1        1        1        0        0        0        0        4        0       14      408      418      409      405
        1        1        1        1        0        0        0        0        4        0       15      410      419      412     7595
        1        1        1        1        0        0        0        0        4        0       16      413      420      414      406
        1        1        1        1        0        0        0        0        4        0       17     8425     7443      423      407
        1        1        1        1        0        0        0        0        4        0       18      407      423      422      417
        1        1        1        1        0        0        0        0        4        0       19      411     9353      427      408
        1        1        1        1        0        0        0        0        4        0       20      408      427      426      418
! ... 9981 like lines cut
!Material Id = {6F37AFB5-6BE1-4913-BD11-659C32AB1788}
/wb,elem,end               !  done creating elements
/com,*********** Send User Defined Coordinate System(s) ***********
csys,0
toffst,273.15,  ! Temperature offset from absolute zero
/com,*********** Set Reference Temperature ***********
tref,22.
/wb,mat,start              !  starting to send materials
/com,*********** Send Materials ***********
MP,DENS,1,7850,	! kg m^-3
MP,EX,1,210000000000,	! Pa
MP,NUXY,1,0.3,
MP,UVID,1,ec5c0670-3e5f-4106-9164-e80ea82ab74e

/wb,mat,end                !  done sending materials
/com,*********** Send Sheet Properties ***********
sectype,1,shell
secdata,1.e-002
secoff,mid

/com,*********** Create Imported Thickness "Imported Thickness" ***********
*DIM,_extdata74,ARRAY,10201,2
! EntityId
_extdata74(1,1) = 1
_extdata74(2,1) = 10
_extdata74(3,1) = 100
_extdata74(4,1) = 1000
_extdata74(5,1) = 10000
_extdata74(6,1) = 10001
_extdata74(7,1) = 10002
_extdata74(8,1) = 10003
_extdata74(9,1) = 10004
_extdata74(10,1) = 10005
_extdata74(11,1) = 10006
_extdata74(12,1) = 10007
_extdata74(13,1) = 10008
_extdata74(14,1) = 10009
_extdata74(15,1) = 1001
_extdata74(16,1) = 10010
_extdata74(17,1) = 10011
_extdata74(18,1) = 10012
_extdata74(19,1) = 10013
_extdata74(20,1) = 10014
! ... 10181 like lines cut
! RealValue
_extdata74(1,2) = 0.169614703292106
_extdata74(2,2) = 0.169614703292106
_extdata74(3,2) = 0.169614703292106
_extdata74(4,2) = 0.95212729121496
_extdata74(5,2) = 0.55892780885585
_extdata74(6,2) = 0.936223054343754
_extdata74(7,2) = 0.761871397446436
_extdata74(8,2) = 1.19513383406425
_extdata74(9,2) = 1.13880012434521
_extdata74(10,2) = 0.68396810613163
_extdata74(11,2) = 1.19869989107538
_extdata74(12,2) = 1.00357164100527
_extdata74(13,2) = 0.330880732129107
_extdata74(14,2) = 0.515645364328102
_extdata74(15,2) = 0.982503930468759
_extdata74(16,2) = 1.14948199854845
_extdata74(17,2) = 1.03193881875186
_extdata74(18,2) = 0.354619619393675
_extdata74(19,2) = 0.798872382782343
_extdata74(20,2) = 0.904101436877253
! ... 10181 like lines cut

sectype,2,shell
secfunction,%_extdata74%, NOD2
secoff,mid
CMBLOCK,_CM74   ,ELEM,    10000
(8i10)
         1         2         3         4         5         6         7         8
         9        10        11        12        13        14        15        16
        17        18        19        20        21        22        23        24
        25        26        27        28        29        30        31        32
        33        34        35        36        37        38        39        40
        41        42        43        44        45        46        47        48
        49        50        51        52        53        54        55        56
        57        58        59        60        61        62        63        64
        65        66        67        68        69        70        71        72
        73        74        75        76        77        78        79        80
        81        82        83        84        85        86        87        88
        89        90        91        92        93        94        95        96
        97        98        99       100       101       102       103       104
       105       106       107       108       109       110       111       112
       113       114       115       116       117       118       119       120
       121       122       123       124       125       126       127       128
       129       130       131       132       133       134       135       136
       137       138       139       140       141       142       143       144
       145       146       147       148       149       150       151       152
       153       154       155       156       157       158       159       160
! ... 1230 like lines cut

emod, _cm74, secnum, 2
! ****** Begin Command Snippet ******
*dim,matids,,1
*set,matids(1),1
*set,matid,1
*dim,typeids,,1
*set,typeids(1),1
!   Commands inserted into this file will be executed just after material definitions in /PREP7.
!   The material number for this body is equal to the parameter "matid" if it's not a part of a Material Assignment.
!   The element type numbers for this body can be referenced using the 1-D array parameter "typeids".

!   Active UNIT system in Workbench when this object was created:  Metric (m, kg, N, s, V, A)
!   NOTE:  Any data that requires units (such as mass) is assumed to be in the consistent solver unit system.
!                See Solving Units in the help system for more information.


!et,matid,SHELL63
!etcontrol,set,on
!r,matit,0.01
*set, matids, ,
*set, typeids, ,
! ****** End   Command Snippet ******
!************************* Model Summary ********************
!Surface Body,	DA plate,	matid,	1
!************************* End Model Summary ********************
! get the diagonal of the bounding box. Needed later for other things
*get,_xmin,node,,mnloc,x
*get,_ymin,node,,mnloc,y
*get,_zmin,node,,mnloc,z
*get,_xmax,node,,mxloc,x
*get,_ymax,node,,mxloc,y
*get,_zmax,node,,mxloc,z
_ASMDIAG=(_xmax-_xmin)*(_xmax-_xmin)+(_ymax-_ymin)*(_ymax-_ymin)+(_zmax-_zmin)*(_zmax-_zmin)
_ASMDIAG=SQRT(_ASMDIAG)
/wb,contact,start          !  starting to send contact
/wb,contact,end            !  done creating contacts
/golist
/wb,load,start             !  starting to send loads
/com,*********** Fixed Supports ***********
CMBLOCK,_FIXEDSU,NODE,      101
(8i10)
         1         2         3         4         5         6         7         8
         9        10        11        12        13        14        15        16
        17        18        19        20        21        22        23        24
        25        26        27        28        29        30        31        32
        33        34        35        36        37        38        39        40
        41        42        43        44        45        46        47        48
        49        50        51        52        53        54        55        56
        57        58        59        60        61        62        63        64
        65        66        67        68        69        70        71        72
        73        74        75        76        77        78        79        80
        81        82        83        84        85        86        87        88
        89        90        91        92        93        94        95        96
        97        98        99       100       101
cmsel,s,_FIXEDSU
d,all,all
nsel,all
/com,*********** Define Surface Elements for Imported Load "Imported Pressure" ***********
et,3,154
keyop,3,7,1				 ! Use original area so load is constant in large deformation
keyop,3,11,2               ! Use real and not projected area
eblock,10,,,10000
(15i9)
    10001        3        3        3        0      402      405      401    10201
    10002        3        3        3        0    10201      403     7595      402
    10003        3        3        3        0      401     7599      404    10201
    10004        3        3        3        0      404      406      403    10201
    10005        3        3        3        0      401     8425      407     7599
    10006        3        3        3        0      405      409     8425      401
    10007        3        3        3        0      402      411      408      405
    10008        3        3        3        0     7595      412      411      402
    10009        3        3        3        0      403     8417      410     7595
    10010        3        3        3        0      406      414     8417      403
    10011        3        3        3        0     7599      416      415      404
    10012        3        3        3        0      415      413      406      404
    10013        3        3        3        0      407      417      416     7599
    10014        3        3        3        0      408      418      409      405
    10015        3        3        3        0      410      419      412     7595
    10016        3        3        3        0      413      420      414      406
    10017        3        3        3        0     8425     7443      423      407
    10018        3        3        3        0      407      423      422      417
    10019        3        3        3        0      411     9353      427      408
    10020        3        3        3        0      408      427      426      418
! ... 9981 like lines cut
esel,all
/gst,on,on
fini
*get,_numnode,node,0,count
*get,_numelem,elem,0,count
*get, _MAXELEMNUM, elem, 0, NUM, MAX
*get, _MAXNODENUM, node, 0, NUM, MAX
*get, _MAXELEMTYPE, etyp, 0, NUM, MAX
*get, _MAXREALCONST, rcon, 0, NUM, MAX
/go
/wb,load,end               !  done creating loads
/com,--- Number of total nodes = %_numnode%
/com,--- Number of contact elements = 0
/com,--- Number of spring elements = 0
/com,--- Number of bearing elements = 0
/com,--- Number of solid elements = 10000
/com,--- Number of condensed parts = 0
/com,--- Number of total elements = %_numelem%
*get,_wallbsol,active,,time,wall
/com,****************************************************************************
/com,*************************    SOLUTION       ********************************
/com,****************************************************************************
/solu
antype,0                   ! static analysis
_thickRatio=  0     ! Ratio of thick parts in the model
eqsl,sparse,,,,,1
cntr,print,1               ! print out contact info and also make no initial contact an error
dmpoption,emat,no             ! Don't combine emat file for DANSYS
dmpoption,esav,no             ! Don't combine esav file for DANSYS
nldiag,cont,iter           ! print out contact info each equilibrium iteration
rescontrol,,none                 ! Do not keep any restart files
/com,****************************************************
/com,******************* SOLVE FOR LS 1 OF 1 ****************
/nopr
/com,*********** Create Imported Load "Imported Pressure" ***********
/nopr
sfe,10001,1,pres,0,-1.92840933115892e-002
sfe,10002,1,pres,0,-2.59667825106461e-002
sfe,10003,1,pres,0,-1.92840933146695e-002
sfe,10004,1,pres,0,-2.59667825092775e-002
sfe,10005,1,pres,0,-1.43003538075661e-002
sfe,10006,1,pres,0,-1.43003538040272e-002
sfe,10007,1,pres,0,-1.92840933211413e-002
sfe,10008,1,pres,0,-2.59667825224235e-002
sfe,10009,1,pres,0,-3.49996662095575e-002
sfe,10010,1,pres,0,-3.49996662048664e-002
sfe,10011,1,pres,0,-1.92840933295655e-002
sfe,10012,1,pres,0,-2.59667825215454e-002
sfe,10013,1,pres,0,-1.43003538165466e-002
sfe,10014,1,pres,0,-1.43003538107329e-002
sfe,10015,1,pres,0,-3.49996662255113e-002
sfe,10016,1,pres,0,-3.49996662234173e-002
sfe,10017,1,pres,0,-1.03115383062159e-002
sfe,10018,1,pres,0,-1.03115383081304e-002
sfe,10019,1,pres,0,-1.92840933280265e-002
sfe,10020,1,pres,0,-1.43003538197235e-002
! ... 9980 like lines cut
/gopr
nsub,1,1,1
time,1.
outres,erase
outres,all,none
outres,nsol,all,
outres,rsol,all
outres,eangl,all
outres,etmp,all
outres,veng,all
outres,strs,all,
outres,epel,all,
outres,eppl,all,
outres,cont,all,
! *********** WB SOLVE COMMAND ***********
! check interactive state
*get,ANSINTER_,active,,int
*if,ANSINTER_,ne,0,then
/eof
*endif
solve
/com *************** Write FE CONNECTORS ********* 
CEWRITE,file,ce,,INTE
/com,****************************************************
/com,*************** FINISHED SOLVE FOR LS 1 *************
*get,_wallasol,active,,time,wall
/nopr
*get,_numnode,node,0,count
*get,_numelem,elem,0,count
*get, _MAXELEMNUM, elem, 0, NUM, MAX
*get, _MAXNODENUM, node, 0, NUM, MAX,,,INTERNAL
*get, _MAXELEMTYPE, etyp, 0, NUM, MAX
*get, _MAXREALCONST, rcon, 0, NUM, MAX
*get,_NSOLTHREADS,active,0,ntfs
*get,_NSOLPROCESSES,active,0,npfs
/gopr
/post1
xmlo,ENCODING,ISO-8859-1
xmlo,parm
/xml,parm,xml
fini
/gopr
*get,_walldone,active,,time,wall
_preptime=(_wallbsol-_wallstrt)*3600
_solvtime=(_wallasol-_wallbsol)*3600
_posttime=(_walldone-_wallasol)*3600
_totaltim=(_walldone-_wallstrt)*3600
*get,_dlbratio,active,0,solu,dlbr
*get,_combtime,active,0,solu,comb
*get,_ssmode,active,0,solu,ssmm
*get,_ndofs,active,0,solu,ndof
*get,_sol_end_time,active,0,set,time
*if,_sol_end_time,eq,1.000000,then
/fclean				!clean distributed files
*endif
/com,--- Total number of nodes = %_numnode%
/com,--- Total number of elements = %_numelem%
/com,--- Element load balance ratio = %_dlbratio%
/com,--- Time to combine distributed files = %_combtime%
/com,--- Sparse memory mode = %_ssmode%
/com,--- Number of DOF = %_ndofs%
/wb,file,end               ! done with WB generated input
